Version 4
SHEET 1 880 732
WIRE 560 304 560 240
WIRE 112 336 112 288
WIRE 416 352 384 352
WIRE 512 352 480 352
WIRE 640 352 608 352
WIRE 704 368 704 352
WIRE 800 368 704 368
WIRE 816 368 800 368
WIRE 704 384 704 368
WIRE 384 416 384 352
WIRE 560 448 560 400
WIRE 112 464 112 416
WIRE 704 496 704 464
WIRE 384 544 384 496
FLAG 112 464 0
FLAG 112 288 VDD
IOPIN 112 288 Out
FLAG 384 544 0
FLAG 560 240 VDD
IOPIN 560 240 In
FLAG 560 448 0
FLAG 704 496 0
FLAG 800 368 Vout
IOPIN 800 368 Out
FLAG 384 352 Vin
SYMBOL Voltage 112 320 R0
SYMATTR InstName VDD
SYMATTR Value 3.3
SYMBOL Voltage 384 400 R0
WINDOW 3 55 175 Left 2
SYMATTR Value SINE(0) AC 20m
SYMATTR InstName Vin
SYMBOL VDAmplifier 576 352 R0
SYMATTR InstName X2
SYMBOL Cap 480 336 R90
WINDOW 0 0 32 VBottom 2
WINDOW 3 32 32 VTop 2
SYMATTR InstName C1
SYMATTR Value 0.1µ
SYMBOL Cap 704 336 R90
WINDOW 0 0 32 VBottom 2
WINDOW 3 32 32 VTop 2
SYMATTR InstName C2
SYMATTR Value 1µ
SYMBOL Res 688 368 R0
SYMATTR InstName R1
SYMATTR Value 5.6k
TEXT 48 584 Left 2 !.include tsmc350.txt\n.ac dec 1000 1 10Meg
