Version 4
SHEET 1 880 680
WIRE 512 192 352 192
WIRE 352 240 352 192
WIRE 368 240 352 240
WIRE 368 288 368 256
WIRE 512 304 512 272
WIRE 160 336 144 336
WIRE 320 336 320 320
WIRE 320 336 160 336
WIRE 144 352 144 336
WIRE 368 352 368 336
WIRE 384 352 368 352
WIRE 464 352 384 352
WIRE 368 368 368 352
WIRE 464 400 464 352
WIRE 320 448 320 336
WIRE 368 448 368 416
WIRE 144 464 144 432
WIRE 464 496 464 464
WIRE 368 528 368 464
FLAG 144 464 0
FLAG 512 304 0
FLAG 368 528 0
FLAG 464 496 0
FLAG 160 336 Vin
FLAG 352 192 VDD
FLAG 384 352 Vout
SYMBOL Voltage 512 176 R0
SYMATTR InstName VDD
SYMATTR Value 3.3
SYMBOL Voltage 144 336 R0
WINDOW 3 -190 -73 Left 2
SYMATTR Value PULSE(0 3.3 0 1n 1n 20n 40n)
SYMATTR InstName Vin
SYMBOL Cap 448 400 R0
SYMATTR InstName C1
SYMATTR Value 1p
SYMBOL pmos4 320 240 R0
SYMATTR InstName M3
SYMATTR Value2 l=350n w=2.5u
SYMBOL nmos4 320 368 R0
SYMATTR InstName M4
SYMATTR Value2 l=350n w=1u
TEXT -48 232 Left 2 !.tran 100n
TEXT -48 200 Left 2 !.include tsmc350.txt
