Version 4
SHEET 1 1168 680
WIRE 240 112 80 112
WIRE 384 112 240 112
WIRE 528 112 384 112
WIRE 688 112 528 112
WIRE 1104 112 688 112
WIRE 1104 240 1104 192
WIRE 80 272 80 112
WIRE 240 272 240 112
WIRE 384 272 384 112
WIRE 528 272 528 112
WIRE 688 272 688 112
WIRE 176 320 144 320
WIRE 320 320 304 320
WIRE 464 320 448 320
WIRE 624 320 592 320
WIRE 16 384 16 320
WIRE 192 384 16 384
WIRE 752 384 752 320
WIRE 752 384 192 384
FLAG 1104 240 0
FLAG 192 384 Vout
SYMBOL Voltage 1104 96 R0
SYMATTR InstName V1
SYMATTR Value 3.3
SYMBOL symb 80 320 R0
SYMATTR InstName X1
SYMBOL symb 240 320 R0
SYMATTR InstName X2
SYMBOL symb 384 320 R0
SYMATTR InstName X3
SYMBOL symb 528 320 R0
SYMATTR InstName X4
SYMBOL symb 688 320 R0
SYMATTR InstName X5
TEXT 24 432 Left 2 !.tran 10n\n.param N=5             \n.meas tran Tperiod TRIG v(Vout) VAL=1.65 RISE=1 TARG v(Vout) VAL=1.65 RISE=2\n.meas tran tp_ring PARAM='Tperiod/(2*N)'
